[Desktop Entry]
Type=Application
Name=LS-PrePost
Name[fr]=LS-PrePost
Exec=lspp42
Terminal=false
Icon=netbeans
Comment=Pre/Post Processing for LS-Dyna
Comment[fr]=Pre/Post processeur pour LS-Dyna
