[Desktop Entry]
Version=1.0
Name=LS-PrePost
Comment=Pre- and post-processor for LS-DYNA
Exec=lsprepost
Terminal=false
Type=Application
Categories=Education;Engineering;NumericalAnalysis;Physics;Science;3DGraphics;DataVisualization


