pkgbase = mingw-w64-qt4-static
	pkgdesc = A cross-platform application and UI framework (mingw-w64)
	pkgver = 4.8.6
	pkgrel = 2
	url = http://qt-project.org/
	arch = i686
	arch = x86_64
	license = GPL3
	license = LGPL
	makedepends = mingw-w64-gcc
	makedepends = mingw-w64-libmariadbclient
	makedepends = mingw-w64-postgresql-libs
	makedepends = mingw-w64-pkg-config
	makedepends = mingw-w64-qt4-dummy
	depends = mingw-w64-crt
	depends = mingw-w64-zlib
	depends = mingw-w64-libjpeg-turbo
	depends = mingw-w64-libiconv
	depends = mingw-w64-libtiff
	depends = mingw-w64-sqlite
	depends = mingw-w64-libpng
	depends = mingw-w64-openssl
	depends = mingw-w64-dbus
	depends = mingw-w64-qt4
	optdepends = mingw-w64-postgresql-libs: PostgreSQL driver
	optdepends = mingw-w64-libmariadbclient: MariaDB driver
	conflicts = mingw-w64-qt-static
	replaces = mingw-w64-qt-static<=4.8.5
	source = http://download.qt-project.org/official_releases/qt/4.8/4.8.6/qt-everywhere-opensource-src-4.8.6.tar.gz
	source = qmake.conf.win32
	source = qmake.conf.win64
	source = qplatformdefs.h
	source = qt-merge-static-and-shared-library-trees.patch
	source = mingw32-qt-4.8.0-no-webkit-tests.patch
	source = qt-dont-perform-ipc-checks-for-win32.patch
	source = qt-4.8.0-fix-include-windows-h.patch
	source = qt-4.8.0-build-qtuitools-dynamically.patch
	source = qt-fix-javascript-jit-on-mingw-x86_64.patch
	source = qt-4.8.1-fix-activeqt-compilation.patch
	source = qt-dont-set-qt-dll-define-for-static-builds.patch
	source = qt-everywhere-opensource-src-4.8.6-QTBUG-38367.patch
	source = qt-4.8.6-fix-out-of-tree-compilation.patch
	source = qt4-fix-linking-against-static-dbus.patch
	options = !strip
	options = !buildflags
	options = !libtool
	options = staticlibs

pkgname = mingw-w64-qt4-static

