# Generated by makepkg 4.2.0
# Tue Feb  3 12:36:59 UTC 2015
pkgbase = mingw-w64-qt4-static
	pkgdesc = A cross-platform application and UI framework (mingw-w64)
	pkgver = 4.8.6
	pkgrel = 3
	url = http://qt-project.org/
	arch = i686
	arch = x86_64
	license = GPL3
	license = LGPL
	makedepends = mingw-w64-gcc
	makedepends = mingw-w64-libmariadbclient
	makedepends = mingw-w64-postgresql-libs
	makedepends = mingw-w64-pkg-config
	makedepends = mingw-w64-qt4-dummy
	depends = mingw-w64-crt
	depends = mingw-w64-zlib
	depends = mingw-w64-libjpeg-turbo
	depends = mingw-w64-libiconv
	depends = mingw-w64-libtiff
	depends = mingw-w64-sqlite
	depends = mingw-w64-libpng
	depends = mingw-w64-openssl
	depends = mingw-w64-libdbus
	depends = mingw-w64-qt4
	optdepends = mingw-w64-postgresql-libs: PostgreSQL driver
	optdepends = mingw-w64-libmariadbclient: MariaDB driver
	conflicts = mingw-w64-qt-static
	replaces = mingw-w64-qt-static<=4.8.5
	options = !strip
	options = !buildflags
	options = !libtool
	options = staticlibs
	source = http://download.qt-project.org/official_releases/qt/4.8/4.8.6/qt-everywhere-opensource-src-4.8.6.tar.gz
	source = qmake.conf.win32
	source = qmake.conf.win64
	source = qplatformdefs.h
	source = qt-merge-static-and-shared-library-trees.patch
	source = mingw32-qt-4.8.0-no-webkit-tests.patch
	source = qt-dont-perform-ipc-checks-for-win32.patch
	source = qt-4.8.0-fix-include-windows-h.patch
	source = qt-4.8.0-build-qtuitools-dynamically.patch
	source = qt-fix-javascript-jit-on-mingw-x86_64.patch
	source = qt-4.8.1-fix-activeqt-compilation.patch
	source = qt-dont-set-qt-dll-define-for-static-builds.patch
	source = qt-everywhere-opensource-src-4.8.6-QTBUG-38367.patch
	source = qt-4.8.6-fix-out-of-tree-compilation.patch
	source = qt4-fix-linking-against-static-dbus.patch
	md5sums = 2edbe4d6c2eff33ef91732602f3518eb
	md5sums = 3759f73b9c872ce692b7067daef134a9
	md5sums = db6257762e051f2b7b18745dca2df43d
	md5sums = 2cba45b6c52c20aa51265d61c1dd9856
	md5sums = 6faad05e8897d3d88cc5b0f5205b2bdc
	md5sums = 91d01b6d31887f78c7933c04544c5758
	md5sums = 28660113fcb05f62ace400187eb8580a
	md5sums = 63dc5a13265ed82b2ba3abd0aa7a59f7
	md5sums = 7f8e12ad3b140e773c7a1f76cdd800f2
	md5sums = 3fe6e419c1f21c59062db1f562c1f9bf
	md5sums = 22fc6f20aa6af060c640fc3b9af888a9
	md5sums = b6d9bcdd1df5115e7063d08bf75c2fd1
	md5sums = 3f5cd9f0b5867c6eaf07f81b4e827c33
	md5sums = 38aa00cf498e7df8807785ee6bcbe8fc
	md5sums = 84a802e6619be4f43b2a9be0ec1a11ef

pkgname = mingw-w64-qt4-static

