2011-02-14  Ivy Foster  <joyfulgirl@archlinux.us>

	* New maintainer: joyfulgirl
	* Version bump: 4.12-1
	* Depends on bibutils-dynamic, not bibutils-lib
