# Contributor: Ivy Foster <joyfulgirl (at) archlinux (dot) us>

pkgname=bibutils-dynamic
_basename=bibutils
pkgver=4.12
pkgrel=2
pkgdesc="Bibliography conversion tools, with dynamic libs"
arch=("i686" "x86_64")
url="http://sourceforge.net/p/bibutils/home/Bibutils/"
license=('GPL2')
makedepends=('tcsh')
provides=('bibutils')
changelog=ChangeLog
source=("http://sourceforge.net/projects/${_basename}/files/${_basename}_${pkgver}_src.tgz")
md5sums=('395f46393eca8e184652c5e8e1ae83b6')

build() {
  cd "${srcdir}/${_basename}_$pkgver"
  ./configure --dynamic \
              --install-dir ${pkgdir}/usr/bin \
              --install-lib ${pkgdir}/usr/lib
  make
}

package() {
  install -d ${pkgdir}/usr/{bin,lib}
  cd "${srcdir}/${_basename}_$pkgver"
  make install
}

# vim:set ts=2 sw=2 et:
